Circuit: * D:\UTN\Nivel 4\Teoría de los circuitos 2\Repositorio\TC2\Trabajos Semanales\TS15\Simulaciones Circuitales\Desnormalizado.asc

Number of points per decade reduced from 10000 to 6368.

Date: Wed Nov 02 15:22:23 2022
Total elapsed time: 0.369 seconds.

tnom = 27
temp = 27
method = trap
totiter = 0
traniter = 0
tranpoints = 0
accept = 0
rejected = 0
matrix size = 3
fillins = 0
solver = Normal

