Circuit: * D:\UTN\Nivel 4\Teoría de los circuitos 2\Repositorio\TC2\Trabajos Semanales\TS10\Simulaciones_LTspice\1-Cauer.asc

Number of points per decade reduced from 100000 to 12685.

Date: Thu Sep 15 18:47:47 2022
Total elapsed time: 0.136 seconds.

tnom = 27
temp = 27
method = trap
totiter = 0
traniter = 0
tranpoints = 0
accept = 0
rejected = 0
matrix size = 8
fillins = 2
solver = Normal

