Circuit: * D:\UTN\Nivel 4\Teoría de los circuitos 2\Repositorio\TC2\Trabajos Semanales\TS13\Simulaciones Circuitales\Draft1.asc

WARNING: Less than two connections to node N003.  This node is used by L3.

Date: Thu Oct 27 16:43:42 2022
Total elapsed time: 0.102 seconds.

tnom = 27
temp = 27
method = trap
totiter = 0
traniter = 0
tranpoints = 0
accept = 0
rejected = 0
matrix size = 5
fillins = 1
solver = Normal

