Circuit: * D:\UTN\Nivel 4\Teoría de los circuitos 2\Repositorio\TC2\Trabajos Semanales\TS13\Simulaciones Circuitales\Punto1.asc


Date: Sun Oct 23 17:50:03 2022
Total elapsed time: 0.108 seconds.

tnom = 27
temp = 27
method = trap
totiter = 0
traniter = 0
tranpoints = 0
accept = 0
rejected = 0
matrix size = 3
fillins = 0
solver = Normal

