Circuit: * D:\UTN\Nivel 4\Teoría de los circuitos 2\Repositorio\TC2\Trabajos Semanales\TS13\Simulaciones Circuitales\Punto2.asc

Number of points per decade reduced from 10000 to 7244.

Date: Sun Oct 23 14:52:16 2022
Total elapsed time: 0.097 seconds.

tnom = 27
temp = 27
method = trap
totiter = 0
traniter = 0
tranpoints = 0
accept = 0
rejected = 0
matrix size = 2
fillins = 0
solver = Normal

