Circuit: * D:\UTN\Nivel 4\Teoría de los circuitos 2\Repositorio\TC2\Trabajos Semanales\TS5\Ej2a.asc

Number of points per decade reduced from 100000 to 21253.

Date: Thu Jun 16 19:32:34 2022
Total elapsed time: 0.088 seconds.

tnom = 27
temp = 27
method = trap
totiter = 0
traniter = 0
tranpoints = 0
accept = 0
rejected = 0
matrix size = 3
fillins = 1
solver = Normal

