Circuit: * D:\UTN\Nivel 4\Teoría de los circuitos 2\Repositorio\TC2\Trabajos Semanales\TS5\Ej3.asc

Number of points per decade reduced from 100000 to 10454.

Date: Thu Jun 16 20:05:20 2022
Total elapsed time: 0.085 seconds.

tnom = 27
temp = 27
method = trap
totiter = 0
traniter = 0
tranpoints = 0
accept = 0
rejected = 0
matrix size = 4
fillins = 1
solver = Normal

