Circuit: * D:\UTN\Nivel 4\Teoría de los circuitos 2\Repositorio\TC2\TP1\Simulaciones Spice\EJ3d.asc

Direct Newton iteration for .op point succeeded.

Date: Sun Apr 24 18:57:28 2022
Total elapsed time: 0.038 seconds.

tnom = 27
temp = 27
method = trap
totiter = 3
traniter = 0
tranpoints = 0
accept = 0
rejected = 0
matrix size = 3
fillins = 0
solver = Normal
Matrix Compiler1:       3 opcodes
Matrix Compiler2: 175 bytes object code size
