Circuit: * D:\UTN\Nivel 4\Teoría de los circuitos 2\Repositorio\TC2\Trabajos Semanales\TS11\Simulaciones_LTspice\1.asc

Number of points per decade reduced from 100000 to 12685.

Date: Sun Sep 18 14:32:22 2022
Total elapsed time: 0.120 seconds.

tnom = 27
temp = 27
method = trap
totiter = 0
traniter = 0
tranpoints = 0
accept = 0
rejected = 0
matrix size = 6
fillins = 1
solver = Normal

