Circuit: * D:\UTN\Nivel 4\Teoría de los circuitos 2\Repositorio\TC2\TP2\Draft1.asc

.OP point found by inspection.

Date: Fri Jun 03 12:00:15 2022
Total elapsed time: 0.042 seconds.

tnom = 27
temp = 27
method = modified trap
totiter = 2084
traniter = 2084
tranpoints = 1043
accept = 1043
rejected = 0
matrix size = 3
fillins = 0
solver = Normal
Matrix Compiler1: 86 bytes object code size  0.0/0.0/[0.0]
Matrix Compiler2:      15 opcodes  0.0/[0.0]/0.0

