Circuit: * D:\UTN\Nivel 4\Teoría de los circuitos 2\Repositorio\TC2\TP7\Simulaciones Circuitales\Punto3-B.asc


Date: Thu Oct 27 17:25:16 2022
Total elapsed time: 0.095 seconds.

tnom = 27
temp = 27
method = trap
totiter = 0
traniter = 0
tranpoints = 0
accept = 0
rejected = 0
matrix size = 3
fillins = 1
solver = Normal

