Circuit: * D:\UTN\Nivel 4\Teoría de los circuitos 2\Repositorio\TC2\Trabajos Semanales\TS12\Simulaciones Circuitales\Punto1.asc

WARNING: Node N003 is floating.


Date: Mon Oct 10 01:18:35 2022
Total elapsed time: 0.080 seconds.

tnom = 27
temp = 27
method = trap
totiter = 0
traniter = 0
tranpoints = 0
accept = 0
rejected = 0
matrix size = 5
fillins = 1
solver = Normal

