Circuit: * D:\UTN\Nivel 4\Teoría de los circuitos 2\Repositorio\TC2\Trabajos Semanales\TS12\Simulaciones Circuitales\Punto2.asc


Date: Mon Oct 10 13:09:19 2022
Total elapsed time: 0.131 seconds.

tnom = 27
temp = 27
method = trap
totiter = 0
traniter = 0
tranpoints = 0
accept = 0
rejected = 0
matrix size = 8
fillins = 2
solver = Normal

