Circuit: * D:\UTN\Nivel 4\Teoría de los circuitos 2\Repositorio\TC2\Trabajos Semanales\TS14\Simulaciones Circuitales\Punto1.asc

Number of points per decade reduced from 100000 to 46098.

Date: Thu Oct 27 21:26:33 2022
Total elapsed time: 0.327 seconds.

tnom = 27
temp = 27
method = trap
totiter = 0
traniter = 0
tranpoints = 0
accept = 0
rejected = 0
matrix size = 3
fillins = 0
solver = Normal

