Circuit: * D:\UTN\Nivel 4\Teoría de los circuitos 2\Repositorio\TC2\Trabajos Semanales\TS3\Draft1.asc

Ignoring empty pin current: Ix(u1:1)
Ignoring empty pin current: Ix(u1:2)
Ignoring empty pin current: Ix(u2:1)
Ignoring empty pin current: Ix(u2:2)
Ignoring empty pin current: Ix(u3:1)
Ignoring empty pin current: Ix(u3:2)

Date: Wed May 25 20:25:59 2022
Total elapsed time: 0.062 seconds.

tnom = 27
temp = 27
method = trap
totiter = 0
traniter = 0
tranpoints = 0
accept = 0
rejected = 0
matrix size = 9
fillins = 1
solver = Normal

